model BasicBuilder -ndm 3 -ndf 3
node	2698	34246.5191	1519.7646	69136.7508
node	2699	34246.5191	1519.7646	69136.7508
node	2700	34661.0748	1519.7646	69033.1299
node	2701	34661.0748	1519.7646	69033.1299
node	2702	34661.0974	1519.7646	68528.7976
node	2703	34661.0974	1519.7646	68528.7976
node	2704	34493.9386	1519.7646	68473.2708
node	2705	34493.9386	1519.7646	68473.2708
node	2706	34246.5191	1645.7489	69136.7508
node	2707	34246.5191	1645.7489	69136.7508
node	2708	34661.0748	1645.7489	69033.1299
node	2709	34661.0748	1645.7489	69033.1299
node	2710	34661.0974	1645.7489	68528.7976
node	2711	34661.0974	1645.7489	68528.7976
node	2712	34493.9386	1645.7489	68473.2708
node	2713	34493.9386	1645.7489	68473.2708
node	2714	34246.5191	1771.7332	69136.7508
node	2715	34246.5191	1771.7332	69136.7508
node	2716	34661.0748	1771.7332	69033.1299
node	2717	34661.0748	1771.7332	69033.1299
# ... 12 like lines cut
model BasicBuilder -ndm 3 -ndf 6
equalDOF	2635	2698 1 2 3
equalDOF	2670	2699 1 2 3
equalDOF	2637	2700 1 2 3
equalDOF	2672	2701 1 2 3
equalDOF	2639	2702 1 2 3
equalDOF	2674	2703 1 2 3
equalDOF	2640	2704 1 2 3
equalDOF	2675	2705 1 2 3
equalDOF	2642	2706 1 2 3
equalDOF	2677	2707 1 2 3
equalDOF	2644	2708 1 2 3
equalDOF	2679	2709 1 2 3
equalDOF	2646	2710 1 2 3
equalDOF	2681	2711 1 2 3
equalDOF	2647	2712 1 2 3
equalDOF	2682	2713 1 2 3
equalDOF	2649	2714 1 2 3
equalDOF	2684	2715 1 2 3
equalDOF	2651	2716 1 2 3
equalDOF	2686	2717 1 2 3
# ... 12 like lines cut
element zeroLengthImpact3D	3883	2698	2699	1	0.01	0.3	1.0e5	1.0e15	100000000000000.0	0.01	1.0e5
element zeroLengthImpact3D	3887	2700	2701	1	0.01	0.3	1.0e5	1.0e15	100000000000000.0	0.01	1.0e5
element zeroLengthImpact3D	3891	2702	2703	1	0.01	0.3	1.0e5	1.0e15	100000000000000.0	0.01	1.0e5
element zeroLengthImpact3D	3895	2704	2705	1	0.01	0.3	1.0e5	1.0e15	100000000000000.0	0.01	1.0e5
element zeroLengthImpact3D	3899	2706	2707	1	0.01	0.3	1.0e5	1.0e15	100000000000000.0	0.01	1.0e5
element zeroLengthImpact3D	3903	2708	2709	1	0.01	0.3	1.0e5	1.0e15	100000000000000.0	0.01	1.0e5
element zeroLengthImpact3D	3907	2710	2711	1	0.01	0.3	1.0e5	1.0e15	100000000000000.0	0.01	1.0e5
element zeroLengthImpact3D	3911	2712	2713	1	0.01	0.3	1.0e5	1.0e15	100000000000000.0	0.01	1.0e5
element zeroLengthImpact3D	3915	2714	2715	1	0.01	0.3	1.0e5	1.0e15	100000000000000.0	0.01	1.0e5
element zeroLengthImpact3D	3919	2716	2717	1	0.01	0.3	1.0e5	1.0e15	100000000000000.0	0.01	1.0e5
element zeroLengthImpact3D	3923	2718	2719	1	0.01	0.3	1.0e5	1.0e15	100000000000000.0	0.01	1.0e5
element zeroLengthImpact3D	3927	2720	2721	1	0.01	0.3	1.0e5	1.0e15	100000000000000.0	0.01	1.0e5
element zeroLengthImpact3D	3931	2722	2723	1	0.01	0.3	1.0e5	1.0e15	100000000000000.0	0.01	1.0e5
element zeroLengthImpact3D	3935	2724	2725	1	0.01	0.3	1.0e5	1.0e15	100000000000000.0	0.01	1.0e5
element zeroLengthImpact3D	3939	2726	2727	1	0.01	0.3	1.0e5	1.0e15	100000000000000.0	0.01	1.0e5
element zeroLengthImpact3D	3943	2728	2729	1	0.01	0.3	1.0e5	1.0e15	100000000000000.0	0.01	1.0e5

uniaxialMaterial Elastic 6 1.0e3
uniaxialMaterial Elastic 7 1.0e3
element zeroLength	3884	2698	2699 -mat 6 7 6 -dir 1 2 3
element zeroLength	3888	2700	2701 -mat 6 7 6 -dir 1 2 3
element zeroLength	3892	2702	2703 -mat 6 7 6 -dir 1 2 3
element zeroLength	3896	2704	2705 -mat 6 7 6 -dir 1 2 3
element zeroLength	3900	2706	2707 -mat 6 7 6 -dir 1 2 3
element zeroLength	3904	2708	2709 -mat 6 7 6 -dir 1 2 3
element zeroLength	3908	2710	2711 -mat 6 7 6 -dir 1 2 3
element zeroLength	3912	2712	2713 -mat 6 7 6 -dir 1 2 3
element zeroLength	3916	2714	2715 -mat 6 7 6 -dir 1 2 3
element zeroLength	3920	2716	2717 -mat 6 7 6 -dir 1 2 3
element zeroLength	3924	2718	2719 -mat 6 7 6 -dir 1 2 3
element zeroLength	3928	2720	2721 -mat 6 7 6 -dir 1 2 3
element zeroLength	3932	2722	2723 -mat 6 7 6 -dir 1 2 3
element zeroLength	3936	2724	2725 -mat 6 7 6 -dir 1 2 3
element zeroLength	3940	2726	2727 -mat 6 7 6 -dir 1 2 3
element zeroLength	3944	2728	2729 -mat 6 7 6 -dir 1 2 3
