model BasicBuilder -ndm 3 -ndf 3
node	30110122	576.0	336.0	0.0
node	30110222	576.0	336.0	288.0
node	30110131	576.0	336.0	0.0
node	30110231	576.0	336.0	288.0
node	20110122	576.0	168.0	0.0
node	20110222	576.0	168.0	288.0
node	20110131	576.0	168.0	0.0
node	20110231	576.0	168.0	288.0
model BasicBuilder -ndm 3 -ndf 6
equalDOF	30000122	30110122 1 2 3
equalDOF	30000222	30110222 1 2 3
equalDOF	30000131	30110131 1 2 3
equalDOF	30000231	30110231 1 2 3
equalDOF	20000122	20110122 1 2 3
equalDOF	20000222	20110222 1 2 3
equalDOF	20000131	20110131 1 2 3
equalDOF	20000231	20110231 1 2 3
element zeroLengthImpact3D	3	30110131	30110122	1	0.01	0.3	1.0e5	1.0e15	100000000000000.0	0.01	1.0e5
element zeroLengthImpact3D	4	30110231	30110222	1	0.01	0.3	1.0e5	1.0e15	100000000000000.0	0.01	1.0e5
element zeroLengthImpact3D	5	20110131	20110122	1	0.01	0.3	1.0e5	1.0e15	100000000000000.0	0.01	1.0e5
element zeroLengthImpact3D	6	20110231	20110222	1	0.01	0.3	1.0e5	1.0e15	100000000000000.0	0.01	1.0e5

uniaxialMaterial Elastic 6 1.0e3
uniaxialMaterial Elastic 7 1.0e3
element zeroLength	30000	30110122	30110131 -mat 6 7 6 -dir 1 2 3
element zeroLength	40000	30110222	30110231 -mat 6 7 6 -dir 1 2 3
element zeroLength	50000	20110122	20110131 -mat 6 7 6 -dir 1 2 3
element zeroLength	60000	20110222	20110231 -mat 6 7 6 -dir 1 2 3
